Circuit: * Z:\home\nailsonchagas\Downloads\Controle_Digital\ProjetoControleDigital\Buck.asc

Direct Newton iteration failed to find .op point.  (Use ".option noopiter" to skip.)
Starting Gmin stepping
Gmin = 10
Gmin = 1.07374
Gmin = 0.115292
Gmin = 0.0123794
Gmin = 0.00132923
Gmin = 0.000142725
Gmin = 1.5325e-005
Gmin = 1.6455e-006
Gmin = 1.76685e-007
Gmin = 1.89714e-008
Gmin = 2.03704e-009
Gmin = 2.18725e-010
Gmin = 2.34854e-011
Gmin = 2.52173e-012
Gmin = 2.70769e-013
Gmin = 0
Gmin stepping succeeded in finding the operating point.


Date: Tue May 13 14:20:19 2025
Total elapsed time: 5.436 seconds.

tnom = 27
temp = 27
method = modified trap
totiter = 1664137
traniter = 1663727
tranpoints = 432017
accept = 311697
rejected = 120320
matrix size = 22
fillins = 3
solver = Normal
Matrix Compiler1: 1.16 KB object code size  0.3/0.2/[0.2]
Matrix Compiler2: 1.78 KB object code size  0.3/0.3/[0.3]

